4
Atoms. Timestep: 0
Al 0 0 0
Al 2.023 2.023 0
Al 2.023 0 2.023
Al 0 2.023 2.023
4
Atoms. Timestep: 4
Al 0.000370103 0.000370103 0.000370103
Al 2.023 2.023 0.000370103
Al 2.023 0.000370103 2.023
Al 0.000370103 2.023 2.023
4
Atoms. Timestep: 5
Al 0.101502 0.101502 0.101502
Al 2.023 2.023 0.101502
Al 2.023 0.101502 2.023
Al 0.101502 2.023 2.023
4
Atoms. Timestep: 6
Al 0.0995801 0.0995801 0.0995801
Al 2.023 2.023 0.0995801
Al 2.023 0.0995801 2.023
Al 0.0995801 2.023 2.023
4
Atoms. Timestep: 7
Al 3.94834 0.0976567 0.0976567
Al 2.023 2.023 0.0976567
Al 2.023 0.0976567 2.023
Al 0.0976567 2.023 2.023
4
Atoms. Timestep: 8
Al 3.95027 0.0957313 0.0957313
Al 2.023 2.023 0.0957313
Al 2.023 0.0957313 2.023
Al 0.0957313 2.023 2.023
4
Atoms. Timestep: 9
Al 0.0938041 0.0938041 0.0938041
Al 2.023 2.023 0.0938041
Al 2.023 0.0938041 2.023
Al 0.0938041 2.023 2.023
4
Atoms. Timestep: 10
Al 0.0918749 0.0918749 0.0918749
Al 2.023 2.023 0.0918749
Al 2.023 0.0918749 2.023
Al 0.0918749 2.023 2.023
4
Atoms. Timestep: 11
Al 0.0899437 0.0899437 0.0899437
Al 2.023 2.023 0.0899437
Al 2.023 0.0899437 2.023
Al 0.0899437 2.023 2.023
4
Atoms. Timestep: 12
Al 0.0880107 0.0880107 0.0880107
Al 2.023 2.023 0.0880107
Al 2.023 0.0880107 2.023
Al 0.0880107 2.023 2.023
4
Atoms. Timestep: 13
Al 0.0860757 0.0860757 0.0860757
Al 2.023 2.023 0.0860757
Al 2.023 0.0860757 2.023
Al 0.0860757 2.023 2.023
4
Atoms. Timestep: 14
Al 0.0841388 0.0841388 0.0841388
Al 2.023 2.023 0.0841388
Al 2.023 0.0841388 2.023
Al 0.0841388 2.023 2.023
4
Atoms. Timestep: 15
Al 0.0821999 0.0821999 0.0821999
Al 2.023 2.023 0.0821999
Al 2.023 0.0821999 2.023
Al 0.0821999 2.023 2.023
4
Atoms. Timestep: 16
Al 0.0802591 0.0802591 0.0802591
Al 2.023 2.023 0.0802591
Al 2.023 0.0802591 2.023
Al 0.0802591 2.023 2.023
4
Atoms. Timestep: 17
Al 0.0783164 0.0783164 0.0783164
Al 2.023 2.023 0.0783164
Al 2.023 0.0783164 2.023
Al 0.0783164 2.023 2.023
4
Atoms. Timestep: 18
Al 0.0763717 0.0763717 0.0763717
Al 2.023 2.023 0.0763717
Al 2.023 0.0763717 2.023
Al 0.0763717 2.023 2.023
4
Atoms. Timestep: 19
Al 0.0744251 0.0744251 0.0744251
Al 2.023 2.023 0.0744251
Al 2.023 0.0744251 2.023
Al 0.0744251 2.023 2.023
4
Atoms. Timestep: 20
Al 0.0724765 0.0724765 0.0724765
Al 2.023 2.023 0.0724765
Al 2.023 0.0724765 2.023
Al 0.0724765 2.023 2.023
4
Atoms. Timestep: 21
Al 0.070526 0.070526 0.070526
Al 2.023 2.023 0.070526
Al 2.023 0.070526 2.023
Al 0.070526 2.023 2.023
4
Atoms. Timestep: 22
Al 0.0685735 0.0685735 0.0685735
Al 2.023 2.023 0.0685735
Al 2.023 0.0685735 2.023
Al 0.0685735 2.023 2.023
4
Atoms. Timestep: 23
Al 0.0666191 0.0666191 0.0666191
Al 2.023 2.023 0.0666191
Al 2.023 0.0666191 2.023
Al 0.0666191 2.023 2.023
4
Atoms. Timestep: 24
Al 0.0646627 0.0646627 0.0646627
Al 2.023 2.023 0.0646627
Al 2.023 0.0646627 2.023
Al 0.0646627 2.023 2.023
4
Atoms. Timestep: 25
Al 0.0627043 0.0627043 0.0627043
Al 2.023 2.023 0.0627043
Al 2.023 0.0627043 2.023
Al 0.0627043 2.023 2.023
4
Atoms. Timestep: 26
Al 0.060744 0.060744 0.060744
Al 2.023 2.023 0.060744
Al 2.023 0.060744 2.023
Al 0.060744 2.023 2.023
4
Atoms. Timestep: 27
Al 0.0587818 0.0587818 0.0587818
Al 2.023 2.023 0.0587818
Al 2.023 0.0587818 2.023
Al 0.0587818 2.023 2.023
4
Atoms. Timestep: 28
Al 0.0568176 0.0568176 0.0568176
Al 2.023 2.023 0.0568176
Al 2.023 0.0568176 2.023
Al 0.0568176 2.023 2.023
4
Atoms. Timestep: 29
Al 0.0548514 0.0548514 0.0548514
Al 2.023 2.023 0.0548514
Al 2.023 0.0548514 2.023
Al 0.0548514 2.023 2.023
4
Atoms. Timestep: 30
Al 0.0528832 0.0528832 0.0528832
Al 2.023 2.023 0.0528832
Al 2.023 0.0528832 2.023
Al 0.0528832 2.023 2.023
4
Atoms. Timestep: 31
Al 0.0509131 0.0509131 0.0509131
Al 2.023 2.023 0.0509131
Al 2.023 0.0509131 2.023
Al 0.0509131 2.023 2.023
4
Atoms. Timestep: 32
Al 0.048941 0.048941 0.048941
Al 2.023 2.023 0.048941
Al 2.023 0.048941 2.023
Al 0.048941 2.023 2.023
4
Atoms. Timestep: 33
Al 0.046967 0.046967 0.046967
Al 2.023 2.023 0.046967
Al 2.023 0.046967 2.023
Al 0.046967 2.023 2.023
4
Atoms. Timestep: 34
Al 0.0449909 0.0449909 0.0449909
Al 2.023 2.023 0.0449909
Al 2.023 0.0449909 2.023
Al 0.0449909 2.023 2.023
4
Atoms. Timestep: 35
Al 0.0430129 0.0430129 0.0430129
Al 2.023 2.023 0.0430129
Al 2.023 0.0430129 2.023
Al 0.0430129 2.023 2.023
4
Atoms. Timestep: 36
Al 0.041033 0.041033 0.041033
Al 2.023 2.023 0.041033
Al 2.023 0.041033 2.023
Al 0.041033 2.023 2.023
4
Atoms. Timestep: 37
Al 0.039051 0.039051 0.039051
Al 2.023 2.023 0.039051
Al 2.023 0.039051 2.023
Al 0.039051 2.023 2.023
4
Atoms. Timestep: 38
Al 0.037067 0.037067 0.037067
Al 2.023 2.023 0.037067
Al 2.023 0.037067 2.023
Al 0.037067 2.023 2.023
4
Atoms. Timestep: 39
Al 0.0350811 0.0350811 0.0350811
Al 2.023 2.023 0.0350811
Al 2.023 0.0350811 2.023
Al 0.0350811 2.023 2.023
4
Atoms. Timestep: 40
Al 0.0330932 0.0330932 0.0330932
Al 2.023 2.023 0.0330932
Al 2.023 0.0330932 2.023
Al 0.0330932 2.023 2.023
4
Atoms. Timestep: 41
Al 0.0311033 0.0311033 0.0311033
Al 2.023 2.023 0.0311033
Al 2.023 0.0311033 2.023
Al 0.0311033 2.023 2.023
4
Atoms. Timestep: 42
Al 0.0291114 0.0291114 0.0291114
Al 2.023 2.023 0.0291114
Al 2.023 0.0291114 2.023
Al 0.0291114 2.023 2.023
4
Atoms. Timestep: 43
Al 0.0271175 0.0271175 0.0271175
Al 2.023 2.023 0.0271175
Al 2.023 0.0271175 2.023
Al 0.0271175 2.023 2.023
4
Atoms. Timestep: 44
Al 0.0251216 0.0251216 0.0251216
Al 2.023 2.023 0.0251216
Al 2.023 0.0251216 2.023
Al 0.0251216 2.023 2.023
4
Atoms. Timestep: 45
Al 0.0231237 0.0231237 0.0231237
Al 2.023 2.023 0.0231237
Al 2.023 0.0231237 2.023
Al 0.0231237 2.023 2.023
4
Atoms. Timestep: 46
Al 0.0211239 0.0211239 0.0211239
Al 2.023 2.023 0.0211239
Al 2.023 0.0211239 2.023
Al 0.0211239 2.023 2.023
4
Atoms. Timestep: 47
Al 0.019122 0.019122 0.019122
Al 2.023 2.023 0.019122
Al 2.023 0.019122 2.023
Al 0.019122 2.023 2.023
4
Atoms. Timestep: 48
Al 0.0171181 0.0171181 0.0171181
Al 2.023 2.023 0.0171181
Al 2.023 0.0171181 2.023
Al 0.0171181 2.023 2.023
4
Atoms. Timestep: 49
Al 0.0151122 0.0151122 0.0151122
Al 2.023 2.023 0.0151122
Al 2.023 0.0151122 2.023
Al 0.0151122 2.023 2.023
4
Atoms. Timestep: 50
Al 0.0131043 0.0131043 0.0131043
Al 2.023 2.023 0.0131043
Al 2.023 0.0131043 2.023
Al 0.0131043 2.023 2.023
4
Atoms. Timestep: 51
Al 0.0110944 0.0110944 0.0110944
Al 2.023 2.023 0.0110944
Al 2.023 0.0110944 2.023
Al 0.0110944 2.023 2.023
4
Atoms. Timestep: 52
Al 0.00908253 0.00908253 0.00908253
Al 2.023 2.023 0.00908253
Al 2.023 0.00908253 2.023
Al 0.00908253 2.023 2.023
4
Atoms. Timestep: 53
Al 0.00706861 0.00706861 0.00706861
Al 2.023 2.023 0.00706861
Al 2.023 0.00706861 2.023
Al 0.00706861 2.023 2.023
4
Atoms. Timestep: 54
Al 0.00505268 0.00505268 0.00505268
Al 2.023 2.023 0.00505268
Al 2.023 0.00505268 2.023
Al 0.00505268 2.023 2.023
4
Atoms. Timestep: 55
Al 0.00303473 0.00303473 0.00303473
Al 2.023 2.023 0.00303473
Al 2.023 0.00303473 2.023
Al 0.00303473 2.023 2.023
4
Atoms. Timestep: 56
Al 0.00101477 0.00101477 0.00101477
Al 2.023 2.023 0.00101477
Al 2.023 0.00101477 2.023
Al 0.00101477 2.023 2.023
4
Atoms. Timestep: 57
Al -0.00100722 -0.00100722 -0.00100722
Al 2.023 2.023 -0.00100722
Al 2.023 -0.00100722 2.023
Al -0.00100722 2.023 2.023
4
Atoms. Timestep: 58
Al -0.00303122 -0.00303122 -0.00303122
Al 2.023 2.023 -0.00303122
Al 2.023 -0.00303122 2.023
Al -0.00303122 2.023 2.023
4
Atoms. Timestep: 59
Al -0.00505725 -0.00505725 -0.00505725
Al 2.023 2.023 -0.00505725
Al 2.023 -0.00505725 2.023
Al -0.00505725 2.023 2.023
4
Atoms. Timestep: 60
Al -0.00708531 -0.00708531 -0.00708531
Al 2.023 2.023 -0.00708531
Al 2.023 -0.00708531 2.023
Al -0.00708531 2.023 2.023
4
Atoms. Timestep: 61
Al -0.0091154 -0.0091154 -0.0091154
Al 2.023 2.023 -0.0091154
Al 2.023 -0.0091154 2.023
Al -0.0091154 2.023 2.023
4
Atoms. Timestep: 62
Al -0.0111475 -0.0111475 -0.0111475
Al 2.023 2.023 -0.0111475
Al 2.023 -0.0111475 2.023
Al -0.0111475 2.023 2.023
4
Atoms. Timestep: 63
Al -0.0131817 -0.0131817 -0.0131817
Al 2.023 2.023 -0.0131817
Al 2.023 -0.0131817 2.023
Al -0.0131817 2.023 2.023
4
Atoms. Timestep: 64
Al -0.0152178 -0.0152178 -0.0152178
Al 2.023 2.023 -0.0152178
Al 2.023 -0.0152178 2.023
Al -0.0152178 2.023 2.023
4
Atoms. Timestep: 65
Al -0.0172561 -0.0172561 -0.0172561
Al 2.023 2.023 -0.0172561
Al 2.023 -0.0172561 2.023
Al -0.0172561 2.023 2.023
4
Atoms. Timestep: 66
Al -0.0192963 -0.0192963 -0.0192963
Al 2.023 2.023 -0.0192963
Al 2.023 -0.0192963 2.023
Al -0.0192963 2.023 2.023
4
Atoms. Timestep: 67
Al -0.0213386 -0.0213386 -0.0213386
Al 2.023 2.023 -0.0213386
Al 2.023 -0.0213386 2.023
Al -0.0213386 2.023 2.023
4
Atoms. Timestep: 68
Al -0.023383 -0.023383 -0.023383
Al 2.023 2.023 -0.023383
Al 2.023 -0.023383 2.023
Al -0.023383 2.023 2.023
4
Atoms. Timestep: 69
Al -0.0254293 -0.0254293 -0.0254293
Al 2.023 2.023 -0.0254293
Al 2.023 -0.0254293 2.023
Al -0.0254293 2.023 2.023
4
Atoms. Timestep: 70
Al -0.0274778 -0.0274778 -0.0274778
Al 2.023 2.023 -0.0274778
Al 2.023 -0.0274778 2.023
Al -0.0274778 2.023 2.023
4
Atoms. Timestep: 71
Al -0.0295282 -0.0295282 -0.0295282
Al 2.023 2.023 -0.0295282
Al 2.023 -0.0295282 2.023
Al -0.0295282 2.023 2.023
4
Atoms. Timestep: 72
Al -0.0315808 -0.0315808 -0.0315808
Al 2.023 2.023 -0.0315808
Al 2.023 -0.0315808 2.023
Al -0.0315808 2.023 2.023
4
Atoms. Timestep: 73
Al -0.0336353 -0.0336353 -0.0336353
Al 2.023 2.023 -0.0336353
Al 2.023 -0.0336353 2.023
Al -0.0336353 2.023 2.023
4
Atoms. Timestep: 74
Al -0.035692 -0.035692 -0.035692
Al 2.023 2.023 -0.035692
Al 2.023 -0.035692 2.023
Al -0.035692 2.023 2.023
4
Atoms. Timestep: 75
Al -0.0377507 -0.0377507 -0.0377507
Al 2.023 2.023 -0.0377507
Al 2.023 -0.0377507 2.023
Al -0.0377507 2.023 2.023
4
Atoms. Timestep: 76
Al -0.0398114 -0.0398114 -0.0398114
Al 2.023 2.023 -0.0398114
Al 2.023 -0.0398114 2.023
Al -0.0398114 2.023 2.023
4
Atoms. Timestep: 77
Al -0.0418742 -0.0418742 -0.0418742
Al 2.023 2.023 -0.0418742
Al 2.023 -0.0418742 2.023
Al -0.0418742 2.023 2.023
4
Atoms. Timestep: 78
Al -0.0439391 -0.0439391 -0.0439391
Al 2.023 2.023 -0.0439391
Al 2.023 -0.0439391 2.023
Al -0.0439391 2.023 2.023
4
Atoms. Timestep: 79
Al -0.0460061 -0.0460061 -0.0460061
Al 2.023 2.023 -0.0460061
Al 2.023 -0.0460061 2.023
Al -0.0460061 2.023 2.023
4
Atoms. Timestep: 80
Al -0.0480751 -0.0480751 -0.0480751
Al 2.023 2.023 -0.0480751
Al 2.023 -0.0480751 2.023
Al -0.0480751 2.023 2.023
4
Atoms. Timestep: 81
Al -0.0501461 -0.0501461 -0.0501461
Al 2.023 2.023 -0.0501461
Al 2.023 -0.0501461 2.023
Al -0.0501461 2.023 2.023
4
Atoms. Timestep: 82
Al -0.0522193 -0.0522193 -0.0522193
Al 2.023 2.023 -0.0522193
Al 2.023 -0.0522193 2.023
Al -0.0522193 2.023 2.023
4
Atoms. Timestep: 83
Al -0.0542945 -0.0542945 -0.0542945
Al 2.023 2.023 -0.0542945
Al 2.023 -0.0542945 2.023
Al -0.0542945 2.023 2.023
4
Atoms. Timestep: 84
Al -0.0563718 -0.0563718 -0.0563718
Al 2.023 2.023 -0.0563718
Al 2.023 -0.0563718 2.023
Al -0.0563718 2.023 2.023
4
Atoms. Timestep: 85
Al -0.0584512 -0.0584512 -0.0584512
Al 2.023 2.023 -0.0584512
Al 2.023 -0.0584512 2.023
Al -0.0584512 2.023 2.023
4
Atoms. Timestep: 86
Al -0.0605326 -0.0605326 -0.0605326
Al 2.023 2.023 -0.0605326
Al 2.023 -0.0605326 2.023
Al -0.0605326 2.023 2.023
4
Atoms. Timestep: 87
Al -0.0626161 -0.0626161 -0.0626161
Al 2.023 2.023 -0.0626161
Al 2.023 -0.0626161 2.023
Al -0.0626161 2.023 2.023
4
Atoms. Timestep: 88
Al -0.0647018 -0.0647018 -0.0647018
Al 2.023 2.023 -0.0647018
Al 2.023 -0.0647018 2.023
Al -0.0647018 2.023 2.023
4
Atoms. Timestep: 89
Al -0.0667895 -0.0667895 -0.0667895
Al 2.023 2.023 -0.0667895
Al 2.023 -0.0667895 2.023
Al -0.0667895 2.023 2.023
4
Atoms. Timestep: 90
Al -0.0688793 -0.0688793 -0.0688793
Al 2.023 2.023 -0.0688793
Al 2.023 -0.0688793 2.023
Al -0.0688793 2.023 2.023
4
Atoms. Timestep: 91
Al -0.0709711 -0.0709711 -0.0709711
Al 2.023 2.023 -0.0709711
Al 2.023 -0.0709711 2.023
Al -0.0709711 2.023 2.023
4
Atoms. Timestep: 92
Al -0.0730651 -0.0730651 -0.0730651
Al 2.023 2.023 -0.0730651
Al 2.023 -0.0730651 2.023
Al -0.0730651 2.023 2.023
4
Atoms. Timestep: 93
Al -0.0751612 -0.0751612 -0.0751612
Al 2.023 2.023 -0.0751612
Al 2.023 -0.0751612 2.023
Al -0.0751612 2.023 2.023
4
Atoms. Timestep: 94
Al -0.0772593 -0.0772593 -0.0772593
Al 2.023 2.023 -0.0772593
Al 2.023 -0.0772593 2.023
Al -0.0772593 2.023 2.023
4
Atoms. Timestep: 95
Al -0.0793596 -0.0793596 -0.0793596
Al 2.023 2.023 -0.0793596
Al 2.023 -0.0793596 2.023
Al -0.0793596 2.023 2.023
4
Atoms. Timestep: 96
Al -0.081462 -0.081462 -0.081462
Al 2.023 2.023 -0.081462
Al 2.023 -0.081462 2.023
Al -0.081462 2.023 2.023
4
Atoms. Timestep: 97
Al -0.0835664 -0.0835664 -0.0835664
Al 2.023 2.023 -0.0835664
Al 2.023 -0.0835664 2.023
Al -0.0835664 2.023 2.023
4
Atoms. Timestep: 98
Al -0.085673 -0.085673 -0.085673
Al 2.023 2.023 -0.085673
Al 2.023 -0.085673 2.023
Al -0.085673 2.023 2.023
4
Atoms. Timestep: 99
Al -0.0877817 -0.0877817 -0.0877817
Al 2.023 2.023 -0.0877817
Al 2.023 -0.0877817 2.023
Al -0.0877817 2.023 2.023
4
Atoms. Timestep: 100
Al -0.0898924 -0.0898924 -0.0898924
Al 2.023 2.023 -0.0898924
Al 2.023 -0.0898924 2.023
Al -0.0898924 2.023 2.023
4
Atoms. Timestep: 101
Al -0.0920053 -0.0920053 -0.0920053
Al 2.023 2.023 -0.0920053
Al 2.023 -0.0920053 2.023
Al -0.0920053 2.023 2.023
4
Atoms. Timestep: 102
Al -0.0941203 -0.0941203 -0.0941203
Al 2.023 2.023 -0.0941203
Al 2.023 -0.0941203 2.023
Al -0.0941203 2.023 2.023
4
Atoms. Timestep: 103
Al -0.0962375 -0.0962375 -0.0962375
Al 2.023 2.023 -0.0962375
Al 2.023 -0.0962375 2.023
Al -0.0962375 2.023 2.023
4
Atoms. Timestep: 104
Al -0.0983567 -0.0983567 -0.0983567
Al 2.023 2.023 -0.0983567
Al 2.023 -0.0983567 2.023
Al -0.0983567 2.023 2.023
4
Atoms. Timestep: 105
Al -0.100478 -0.100478 -0.100478
Al 2.023 2.023 -0.100478
Al 2.023 -0.100478 2.023
Al -0.100478 2.023 2.023
